[root]
type=Root
children=system
eventq_index=0
full_system=true
sim_quantum=0
time_sync_enable=false
time_sync_period=100000000000
time_sync_spin_threshold=100000000

[system]
type=LinuxAlphaSystem
children=clk_domain cpu00 cpu01 cpu02 cpu03 cpu04 cpu05 cpu06 cpu07 cpu08 cpu09 cpu10 cpu11 cpu12 cpu13 cpu14 cpu15 cpu_clk_domain cpu_voltage_domain disk0 disk2 dvfs_handler intrctrl iobus mem_ctrls00 mem_ctrls01 mem_ctrls02 mem_ctrls03 mem_ctrls04 mem_ctrls05 mem_ctrls06 mem_ctrls07 mem_ctrls08 mem_ctrls09 mem_ctrls10 mem_ctrls11 mem_ctrls12 mem_ctrls13 mem_ctrls14 mem_ctrls15 ruby simple_disk sys_port_proxy terminal tsunami voltage_domain
boot_cpu_frequency=500
boot_osflags=root=/dev/hda1 console=ttyS0
cache_line_size=64
clk_domain=system.clk_domain
console=/home/farhad/gem5/PARSEC_ALPHA/m5_system_2.0b3/binaries/console
eventq_index=0
init_param=0
kernel=/home/farhad/gem5/PARSEC_ALPHA/m5_system_2.0b3/binaries/vmlinux
kernel_addr_check=true
load_addr_mask=1099511627775
load_offset=0
mem_mode=timing
mem_ranges=0:536870911
memories=system.mem_ctrls00 system.mem_ctrls01 system.mem_ctrls02 system.mem_ctrls03 system.mem_ctrls04 system.mem_ctrls05 system.mem_ctrls06 system.mem_ctrls07 system.mem_ctrls08 system.mem_ctrls09 system.mem_ctrls10 system.mem_ctrls11 system.mem_ctrls12 system.mem_ctrls13 system.mem_ctrls14 system.mem_ctrls15
mmap_using_noreserve=false
multi_thread=false
num_work_ids=16
pal=/home/farhad/gem5/PARSEC_ALPHA/m5_system_2.0b3/binaries/tsb_osfpal
readfile=../PARSEC_ALPHA/blackscholes_16c_simsmall.rcS
symbolfile=
system_rev=1024
system_type=34
work_begin_ckpt_count=0
work_begin_cpu_id_exit=-1
work_begin_exit_count=0
work_cpus_ckpt_count=0
work_end_ckpt_count=0
work_end_exit_count=0
work_item_id=-1
system_port=system.sys_port_proxy.slave[0]

[system.clk_domain]
type=SrcClockDomain
clock=1000
domain_id=-1
eventq_index=0
init_perf_level=0
voltage_domain=system.voltage_domain

[system.cpu00]
type=TimingSimpleCPU
children=dtb interrupts isa itb tracer
branchPred=Null
checker=Null
clk_domain=system.cpu_clk_domain
cpu_id=0
do_checkpoint_insts=true
do_quiesce=true
do_statistics_insts=true
dtb=system.cpu00.dtb
eventq_index=0
function_trace=false
function_trace_start=0
interrupts=system.cpu00.interrupts
isa=system.cpu00.isa
itb=system.cpu00.itb
max_insts_all_threads=0
max_insts_any_thread=0
max_loads_all_threads=0
max_loads_any_thread=0
numThreads=1
profile=0
progress_interval=0
simpoint_start_insts=
socket_id=0
switched_out=false
system=system
tracer=system.cpu00.tracer
workload=
dcache_port=system.ruby.l1_cntrl0.sequencer.slave[1]
icache_port=system.ruby.l1_cntrl0.sequencer.slave[0]

[system.cpu00.dtb]
type=AlphaTLB
eventq_index=0
size=64

[system.cpu00.interrupts]
type=AlphaInterrupts
eventq_index=0

[system.cpu00.isa]
type=AlphaISA
eventq_index=0
system=system

[system.cpu00.itb]
type=AlphaTLB
eventq_index=0
size=48

[system.cpu00.tracer]
type=ExeTracer
eventq_index=0

[system.cpu01]
type=TimingSimpleCPU
children=dtb interrupts isa itb tracer
branchPred=Null
checker=Null
clk_domain=system.cpu_clk_domain
cpu_id=1
do_checkpoint_insts=true
do_quiesce=true
do_statistics_insts=true
dtb=system.cpu01.dtb
eventq_index=0
function_trace=false
function_trace_start=0
interrupts=system.cpu01.interrupts
isa=system.cpu01.isa
itb=system.cpu01.itb
max_insts_all_threads=0
max_insts_any_thread=0
max_loads_all_threads=0
max_loads_any_thread=0
numThreads=1
profile=0
progress_interval=0
simpoint_start_insts=
socket_id=0
switched_out=false
system=system
tracer=system.cpu01.tracer
workload=
dcache_port=system.ruby.l1_cntrl1.sequencer.slave[1]
icache_port=system.ruby.l1_cntrl1.sequencer.slave[0]

[system.cpu01.dtb]
type=AlphaTLB
eventq_index=0
size=64

[system.cpu01.interrupts]
type=AlphaInterrupts
eventq_index=0

[system.cpu01.isa]
type=AlphaISA
eventq_index=0
system=system

[system.cpu01.itb]
type=AlphaTLB
eventq_index=0
size=48

[system.cpu01.tracer]
type=ExeTracer
eventq_index=0

[system.cpu02]
type=TimingSimpleCPU
children=dtb interrupts isa itb tracer
branchPred=Null
checker=Null
clk_domain=system.cpu_clk_domain
cpu_id=2
do_checkpoint_insts=true
do_quiesce=true
do_statistics_insts=true
dtb=system.cpu02.dtb
eventq_index=0
function_trace=false
function_trace_start=0
interrupts=system.cpu02.interrupts
isa=system.cpu02.isa
itb=system.cpu02.itb
max_insts_all_threads=0
max_insts_any_thread=0
max_loads_all_threads=0
max_loads_any_thread=0
numThreads=1
profile=0
progress_interval=0
simpoint_start_insts=
socket_id=0
switched_out=false
system=system
tracer=system.cpu02.tracer
workload=
dcache_port=system.ruby.l1_cntrl2.sequencer.slave[1]
icache_port=system.ruby.l1_cntrl2.sequencer.slave[0]

[system.cpu02.dtb]
type=AlphaTLB
eventq_index=0
size=64

[system.cpu02.interrupts]
type=AlphaInterrupts
eventq_index=0

[system.cpu02.isa]
type=AlphaISA
eventq_index=0
system=system

[system.cpu02.itb]
type=AlphaTLB
eventq_index=0
size=48

[system.cpu02.tracer]
type=ExeTracer
eventq_index=0

[system.cpu03]
type=TimingSimpleCPU
children=dtb interrupts isa itb tracer
branchPred=Null
checker=Null
clk_domain=system.cpu_clk_domain
cpu_id=3
do_checkpoint_insts=true
do_quiesce=true
do_statistics_insts=true
dtb=system.cpu03.dtb
eventq_index=0
function_trace=false
function_trace_start=0
interrupts=system.cpu03.interrupts
isa=system.cpu03.isa
itb=system.cpu03.itb
max_insts_all_threads=0
max_insts_any_thread=0
max_loads_all_threads=0
max_loads_any_thread=0
numThreads=1
profile=0
progress_interval=0
simpoint_start_insts=
socket_id=0
switched_out=false
system=system
tracer=system.cpu03.tracer
workload=
dcache_port=system.ruby.l1_cntrl3.sequencer.slave[1]
icache_port=system.ruby.l1_cntrl3.sequencer.slave[0]

[system.cpu03.dtb]
type=AlphaTLB
eventq_index=0
size=64

[system.cpu03.interrupts]
type=AlphaInterrupts
eventq_index=0

[system.cpu03.isa]
type=AlphaISA
eventq_index=0
system=system

[system.cpu03.itb]
type=AlphaTLB
eventq_index=0
size=48

[system.cpu03.tracer]
type=ExeTracer
eventq_index=0

[system.cpu04]
type=TimingSimpleCPU
children=dtb interrupts isa itb tracer
branchPred=Null
checker=Null
clk_domain=system.cpu_clk_domain
cpu_id=4
do_checkpoint_insts=true
do_quiesce=true
do_statistics_insts=true
dtb=system.cpu04.dtb
eventq_index=0
function_trace=false
function_trace_start=0
interrupts=system.cpu04.interrupts
isa=system.cpu04.isa
itb=system.cpu04.itb
max_insts_all_threads=0
max_insts_any_thread=0
max_loads_all_threads=0
max_loads_any_thread=0
numThreads=1
profile=0
progress_interval=0
simpoint_start_insts=
socket_id=0
switched_out=false
system=system
tracer=system.cpu04.tracer
workload=
dcache_port=system.ruby.l1_cntrl4.sequencer.slave[1]
icache_port=system.ruby.l1_cntrl4.sequencer.slave[0]

[system.cpu04.dtb]
type=AlphaTLB
eventq_index=0
size=64

[system.cpu04.interrupts]
type=AlphaInterrupts
eventq_index=0

[system.cpu04.isa]
type=AlphaISA
eventq_index=0
system=system

[system.cpu04.itb]
type=AlphaTLB
eventq_index=0
size=48

[system.cpu04.tracer]
type=ExeTracer
eventq_index=0

[system.cpu05]
type=TimingSimpleCPU
children=dtb interrupts isa itb tracer
branchPred=Null
checker=Null
clk_domain=system.cpu_clk_domain
cpu_id=5
do_checkpoint_insts=true
do_quiesce=true
do_statistics_insts=true
dtb=system.cpu05.dtb
eventq_index=0
function_trace=false
function_trace_start=0
interrupts=system.cpu05.interrupts
isa=system.cpu05.isa
itb=system.cpu05.itb
max_insts_all_threads=0
max_insts_any_thread=0
max_loads_all_threads=0
max_loads_any_thread=0
numThreads=1
profile=0
progress_interval=0
simpoint_start_insts=
socket_id=0
switched_out=false
system=system
tracer=system.cpu05.tracer
workload=
dcache_port=system.ruby.l1_cntrl5.sequencer.slave[1]
icache_port=system.ruby.l1_cntrl5.sequencer.slave[0]

[system.cpu05.dtb]
type=AlphaTLB
eventq_index=0
size=64

[system.cpu05.interrupts]
type=AlphaInterrupts
eventq_index=0

[system.cpu05.isa]
type=AlphaISA
eventq_index=0
system=system

[system.cpu05.itb]
type=AlphaTLB
eventq_index=0
size=48

[system.cpu05.tracer]
type=ExeTracer
eventq_index=0

[system.cpu06]
type=TimingSimpleCPU
children=dtb interrupts isa itb tracer
branchPred=Null
checker=Null
clk_domain=system.cpu_clk_domain
cpu_id=6
do_checkpoint_insts=true
do_quiesce=true
do_statistics_insts=true
dtb=system.cpu06.dtb
eventq_index=0
function_trace=false
function_trace_start=0
interrupts=system.cpu06.interrupts
isa=system.cpu06.isa
itb=system.cpu06.itb
max_insts_all_threads=0
max_insts_any_thread=0
max_loads_all_threads=0
max_loads_any_thread=0
numThreads=1
profile=0
progress_interval=0
simpoint_start_insts=
socket_id=0
switched_out=false
system=system
tracer=system.cpu06.tracer
workload=
dcache_port=system.ruby.l1_cntrl6.sequencer.slave[1]
icache_port=system.ruby.l1_cntrl6.sequencer.slave[0]

[system.cpu06.dtb]
type=AlphaTLB
eventq_index=0
size=64

[system.cpu06.interrupts]
type=AlphaInterrupts
eventq_index=0

[system.cpu06.isa]
type=AlphaISA
eventq_index=0
system=system

[system.cpu06.itb]
type=AlphaTLB
eventq_index=0
size=48

[system.cpu06.tracer]
type=ExeTracer
eventq_index=0

[system.cpu07]
type=TimingSimpleCPU
children=dtb interrupts isa itb tracer
branchPred=Null
checker=Null
clk_domain=system.cpu_clk_domain
cpu_id=7
do_checkpoint_insts=true
do_quiesce=true
do_statistics_insts=true
dtb=system.cpu07.dtb
eventq_index=0
function_trace=false
function_trace_start=0
interrupts=system.cpu07.interrupts
isa=system.cpu07.isa
itb=system.cpu07.itb
max_insts_all_threads=0
max_insts_any_thread=0
max_loads_all_threads=0
max_loads_any_thread=0
numThreads=1
profile=0
progress_interval=0
simpoint_start_insts=
socket_id=0
switched_out=false
system=system
tracer=system.cpu07.tracer
workload=
dcache_port=system.ruby.l1_cntrl7.sequencer.slave[1]
icache_port=system.ruby.l1_cntrl7.sequencer.slave[0]

[system.cpu07.dtb]
type=AlphaTLB
eventq_index=0
size=64

[system.cpu07.interrupts]
type=AlphaInterrupts
eventq_index=0

[system.cpu07.isa]
type=AlphaISA
eventq_index=0
system=system

[system.cpu07.itb]
type=AlphaTLB
eventq_index=0
size=48

[system.cpu07.tracer]
type=ExeTracer
eventq_index=0

[system.cpu08]
type=TimingSimpleCPU
children=dtb interrupts isa itb tracer
branchPred=Null
checker=Null
clk_domain=system.cpu_clk_domain
cpu_id=8
do_checkpoint_insts=true
do_quiesce=true
do_statistics_insts=true
dtb=system.cpu08.dtb
eventq_index=0
function_trace=false
function_trace_start=0
interrupts=system.cpu08.interrupts
isa=system.cpu08.isa
itb=system.cpu08.itb
max_insts_all_threads=0
max_insts_any_thread=0
max_loads_all_threads=0
max_loads_any_thread=0
numThreads=1
profile=0
progress_interval=0
simpoint_start_insts=
socket_id=0
switched_out=false
system=system
tracer=system.cpu08.tracer
workload=
dcache_port=system.ruby.l1_cntrl8.sequencer.slave[1]
icache_port=system.ruby.l1_cntrl8.sequencer.slave[0]

[system.cpu08.dtb]
type=AlphaTLB
eventq_index=0
size=64

[system.cpu08.interrupts]
type=AlphaInterrupts
eventq_index=0

[system.cpu08.isa]
type=AlphaISA
eventq_index=0
system=system

[system.cpu08.itb]
type=AlphaTLB
eventq_index=0
size=48

[system.cpu08.tracer]
type=ExeTracer
eventq_index=0

[system.cpu09]
type=TimingSimpleCPU
children=dtb interrupts isa itb tracer
branchPred=Null
checker=Null
clk_domain=system.cpu_clk_domain
cpu_id=9
do_checkpoint_insts=true
do_quiesce=true
do_statistics_insts=true
dtb=system.cpu09.dtb
eventq_index=0
function_trace=false
function_trace_start=0
interrupts=system.cpu09.interrupts
isa=system.cpu09.isa
itb=system.cpu09.itb
max_insts_all_threads=0
max_insts_any_thread=0
max_loads_all_threads=0
max_loads_any_thread=0
numThreads=1
profile=0
progress_interval=0
simpoint_start_insts=
socket_id=0
switched_out=false
system=system
tracer=system.cpu09.tracer
workload=
dcache_port=system.ruby.l1_cntrl9.sequencer.slave[1]
icache_port=system.ruby.l1_cntrl9.sequencer.slave[0]

[system.cpu09.dtb]
type=AlphaTLB
eventq_index=0
size=64

[system.cpu09.interrupts]
type=AlphaInterrupts
eventq_index=0

[system.cpu09.isa]
type=AlphaISA
eventq_index=0
system=system

[system.cpu09.itb]
type=AlphaTLB
eventq_index=0
size=48

[system.cpu09.tracer]
type=ExeTracer
eventq_index=0

[system.cpu10]
type=TimingSimpleCPU
children=dtb interrupts isa itb tracer
branchPred=Null
checker=Null
clk_domain=system.cpu_clk_domain
cpu_id=10
do_checkpoint_insts=true
do_quiesce=true
do_statistics_insts=true
dtb=system.cpu10.dtb
eventq_index=0
function_trace=false
function_trace_start=0
interrupts=system.cpu10.interrupts
isa=system.cpu10.isa
itb=system.cpu10.itb
max_insts_all_threads=0
max_insts_any_thread=0
max_loads_all_threads=0
max_loads_any_thread=0
numThreads=1
profile=0
progress_interval=0
simpoint_start_insts=
socket_id=0
switched_out=false
system=system
tracer=system.cpu10.tracer
workload=
dcache_port=system.ruby.l1_cntrl10.sequencer.slave[1]
icache_port=system.ruby.l1_cntrl10.sequencer.slave[0]

[system.cpu10.dtb]
type=AlphaTLB
eventq_index=0
size=64

[system.cpu10.interrupts]
type=AlphaInterrupts
eventq_index=0

[system.cpu10.isa]
type=AlphaISA
eventq_index=0
system=system

[system.cpu10.itb]
type=AlphaTLB
eventq_index=0
size=48

[system.cpu10.tracer]
type=ExeTracer
eventq_index=0

[system.cpu11]
type=TimingSimpleCPU
children=dtb interrupts isa itb tracer
branchPred=Null
checker=Null
clk_domain=system.cpu_clk_domain
cpu_id=11
do_checkpoint_insts=true
do_quiesce=true
do_statistics_insts=true
dtb=system.cpu11.dtb
eventq_index=0
function_trace=false
function_trace_start=0
interrupts=system.cpu11.interrupts
isa=system.cpu11.isa
itb=system.cpu11.itb
max_insts_all_threads=0
max_insts_any_thread=0
max_loads_all_threads=0
max_loads_any_thread=0
numThreads=1
profile=0
progress_interval=0
simpoint_start_insts=
socket_id=0
switched_out=false
system=system
tracer=system.cpu11.tracer
workload=
dcache_port=system.ruby.l1_cntrl11.sequencer.slave[1]
icache_port=system.ruby.l1_cntrl11.sequencer.slave[0]

[system.cpu11.dtb]
type=AlphaTLB
eventq_index=0
size=64

[system.cpu11.interrupts]
type=AlphaInterrupts
eventq_index=0

[system.cpu11.isa]
type=AlphaISA
eventq_index=0
system=system

[system.cpu11.itb]
type=AlphaTLB
eventq_index=0
size=48

[system.cpu11.tracer]
type=ExeTracer
eventq_index=0

[system.cpu12]
type=TimingSimpleCPU
children=dtb interrupts isa itb tracer
branchPred=Null
checker=Null
clk_domain=system.cpu_clk_domain
cpu_id=12
do_checkpoint_insts=true
do_quiesce=true
do_statistics_insts=true
dtb=system.cpu12.dtb
eventq_index=0
function_trace=false
function_trace_start=0
interrupts=system.cpu12.interrupts
isa=system.cpu12.isa
itb=system.cpu12.itb
max_insts_all_threads=0
max_insts_any_thread=0
max_loads_all_threads=0
max_loads_any_thread=0
numThreads=1
profile=0
progress_interval=0
simpoint_start_insts=
socket_id=0
switched_out=false
system=system
tracer=system.cpu12.tracer
workload=
dcache_port=system.ruby.l1_cntrl12.sequencer.slave[1]
icache_port=system.ruby.l1_cntrl12.sequencer.slave[0]

[system.cpu12.dtb]
type=AlphaTLB
eventq_index=0
size=64

[system.cpu12.interrupts]
type=AlphaInterrupts
eventq_index=0

[system.cpu12.isa]
type=AlphaISA
eventq_index=0
system=system

[system.cpu12.itb]
type=AlphaTLB
eventq_index=0
size=48

[system.cpu12.tracer]
type=ExeTracer
eventq_index=0

[system.cpu13]
type=TimingSimpleCPU
children=dtb interrupts isa itb tracer
branchPred=Null
checker=Null
clk_domain=system.cpu_clk_domain
cpu_id=13
do_checkpoint_insts=true
do_quiesce=true
do_statistics_insts=true
dtb=system.cpu13.dtb
eventq_index=0
function_trace=false
function_trace_start=0
interrupts=system.cpu13.interrupts
isa=system.cpu13.isa
itb=system.cpu13.itb
max_insts_all_threads=0
max_insts_any_thread=0
max_loads_all_threads=0
max_loads_any_thread=0
numThreads=1
profile=0
progress_interval=0
simpoint_start_insts=
socket_id=0
switched_out=false
system=system
tracer=system.cpu13.tracer
workload=
dcache_port=system.ruby.l1_cntrl13.sequencer.slave[1]
icache_port=system.ruby.l1_cntrl13.sequencer.slave[0]

[system.cpu13.dtb]
type=AlphaTLB
eventq_index=0
size=64

[system.cpu13.interrupts]
type=AlphaInterrupts
eventq_index=0

[system.cpu13.isa]
type=AlphaISA
eventq_index=0
system=system

[system.cpu13.itb]
type=AlphaTLB
eventq_index=0
size=48

[system.cpu13.tracer]
type=ExeTracer
eventq_index=0

[system.cpu14]
type=TimingSimpleCPU
children=dtb interrupts isa itb tracer
branchPred=Null
checker=Null
clk_domain=system.cpu_clk_domain
cpu_id=14
do_checkpoint_insts=true
do_quiesce=true
do_statistics_insts=true
dtb=system.cpu14.dtb
eventq_index=0
function_trace=false
function_trace_start=0
interrupts=system.cpu14.interrupts
isa=system.cpu14.isa
itb=system.cpu14.itb
max_insts_all_threads=0
max_insts_any_thread=0
max_loads_all_threads=0
max_loads_any_thread=0
numThreads=1
profile=0
progress_interval=0
simpoint_start_insts=
socket_id=0
switched_out=false
system=system
tracer=system.cpu14.tracer
workload=
dcache_port=system.ruby.l1_cntrl14.sequencer.slave[1]
icache_port=system.ruby.l1_cntrl14.sequencer.slave[0]

[system.cpu14.dtb]
type=AlphaTLB
eventq_index=0
size=64

[system.cpu14.interrupts]
type=AlphaInterrupts
eventq_index=0

[system.cpu14.isa]
type=AlphaISA
eventq_index=0
system=system

[system.cpu14.itb]
type=AlphaTLB
eventq_index=0
size=48

[system.cpu14.tracer]
type=ExeTracer
eventq_index=0

[system.cpu15]
type=TimingSimpleCPU
children=dtb interrupts isa itb tracer
branchPred=Null
checker=Null
clk_domain=system.cpu_clk_domain
cpu_id=15
do_checkpoint_insts=true
do_quiesce=true
do_statistics_insts=true
dtb=system.cpu15.dtb
eventq_index=0
function_trace=false
function_trace_start=0
interrupts=system.cpu15.interrupts
isa=system.cpu15.isa
itb=system.cpu15.itb
max_insts_all_threads=0
max_insts_any_thread=0
max_loads_all_threads=0
max_loads_any_thread=0
numThreads=1
profile=0
progress_interval=0
simpoint_start_insts=
socket_id=0
switched_out=false
system=system
tracer=system.cpu15.tracer
workload=
dcache_port=system.ruby.l1_cntrl15.sequencer.slave[1]
icache_port=system.ruby.l1_cntrl15.sequencer.slave[0]

[system.cpu15.dtb]
type=AlphaTLB
eventq_index=0
size=64

[system.cpu15.interrupts]
type=AlphaInterrupts
eventq_index=0

[system.cpu15.isa]
type=AlphaISA
eventq_index=0
system=system

[system.cpu15.itb]
type=AlphaTLB
eventq_index=0
size=48

[system.cpu15.tracer]
type=ExeTracer
eventq_index=0

[system.cpu_clk_domain]
type=SrcClockDomain
clock=500
domain_id=-1
eventq_index=0
init_perf_level=0
voltage_domain=system.cpu_voltage_domain

[system.cpu_voltage_domain]
type=VoltageDomain
eventq_index=0
voltage=1.000000

[system.disk0]
type=IdeDisk
children=image
delay=1000000
driveID=master
eventq_index=0
image=system.disk0.image

[system.disk0.image]
type=CowDiskImage
children=child
child=system.disk0.image.child
eventq_index=0
image_file=
read_only=false
table_size=65536

[system.disk0.image.child]
type=RawDiskImage
eventq_index=0
image_file=/home/farhad/gem5/PARSEC_ALPHA/m5_system_2.0b3/disks/linux-parsec-2-1-m5.img
read_only=true

[system.disk2]
type=IdeDisk
children=image
delay=1000000
driveID=master
eventq_index=0
image=system.disk2.image

[system.disk2.image]
type=CowDiskImage
children=child
child=system.disk2.image.child
eventq_index=0
image_file=
read_only=false
table_size=65536

[system.disk2.image.child]
type=RawDiskImage
eventq_index=0
image_file=/home/farhad/gem5/PARSEC_ALPHA/m5_system_2.0b3/disks/linux-bigswap2.img
read_only=true

[system.dvfs_handler]
type=DVFSHandler
domains=
enable=true
eventq_index=0
sys_clk_domain=system.clk_domain
transition_latency=100000000

[system.intrctrl]
type=IntrControl
eventq_index=0
sys=system

[system.iobus]
type=NoncoherentXBar
clk_domain=system.clk_domain
eventq_index=0
forward_latency=1
frontend_latency=2
response_latency=2
use_default_range=true
width=16
default=system.tsunami.pciconfig.pio
master=system.tsunami.cchip.pio system.tsunami.pchip.pio system.tsunami.fake_sm_chip.pio system.tsunami.fake_uart1.pio system.tsunami.fake_uart2.pio system.tsunami.fake_uart3.pio system.tsunami.fake_uart4.pio system.tsunami.fake_ppc.pio system.tsunami.fake_OROM.pio system.tsunami.fake_pnp_addr.pio system.tsunami.fake_pnp_write.pio system.tsunami.fake_pnp_read0.pio system.tsunami.fake_pnp_read1.pio system.tsunami.fake_pnp_read2.pio system.tsunami.fake_pnp_read3.pio system.tsunami.fake_pnp_read4.pio system.tsunami.fake_pnp_read5.pio system.tsunami.fake_pnp_read6.pio system.tsunami.fake_pnp_read7.pio system.tsunami.fake_ata0.pio system.tsunami.fake_ata1.pio system.tsunami.fb.pio system.tsunami.io.pio system.tsunami.uart.pio system.tsunami.backdoor.pio system.tsunami.ide.pio system.tsunami.ide.config system.tsunami.ethernet.pio system.tsunami.ethernet.config system.ruby.io_controller.dma_sequencer.slave
slave=system.ruby.l1_cntrl0.sequencer.pio_master_port system.ruby.l1_cntrl0.sequencer.mem_master_port system.ruby.l1_cntrl1.sequencer.pio_master_port system.ruby.l1_cntrl1.sequencer.mem_master_port system.ruby.l1_cntrl2.sequencer.pio_master_port system.ruby.l1_cntrl2.sequencer.mem_master_port system.ruby.l1_cntrl3.sequencer.pio_master_port system.ruby.l1_cntrl3.sequencer.mem_master_port system.ruby.l1_cntrl4.sequencer.pio_master_port system.ruby.l1_cntrl4.sequencer.mem_master_port system.ruby.l1_cntrl5.sequencer.pio_master_port system.ruby.l1_cntrl5.sequencer.mem_master_port system.ruby.l1_cntrl6.sequencer.pio_master_port system.ruby.l1_cntrl6.sequencer.mem_master_port system.ruby.l1_cntrl7.sequencer.pio_master_port system.ruby.l1_cntrl7.sequencer.mem_master_port system.ruby.l1_cntrl8.sequencer.pio_master_port system.ruby.l1_cntrl8.sequencer.mem_master_port system.ruby.l1_cntrl9.sequencer.pio_master_port system.ruby.l1_cntrl9.sequencer.mem_master_port system.ruby.l1_cntrl10.sequencer.pio_master_port system.ruby.l1_cntrl10.sequencer.mem_master_port system.ruby.l1_cntrl11.sequencer.pio_master_port system.ruby.l1_cntrl11.sequencer.mem_master_port system.ruby.l1_cntrl12.sequencer.pio_master_port system.ruby.l1_cntrl12.sequencer.mem_master_port system.ruby.l1_cntrl13.sequencer.pio_master_port system.ruby.l1_cntrl13.sequencer.mem_master_port system.ruby.l1_cntrl14.sequencer.pio_master_port system.ruby.l1_cntrl14.sequencer.mem_master_port system.ruby.l1_cntrl15.sequencer.pio_master_port system.ruby.l1_cntrl15.sequencer.mem_master_port

[system.mem_ctrls00]
type=DRAMCtrl
IDD0=0.075000
IDD02=0.000000
IDD2N=0.050000
IDD2N2=0.000000
IDD2P0=0.000000
IDD2P02=0.000000
IDD2P1=0.000000
IDD2P12=0.000000
IDD3N=0.057000
IDD3N2=0.000000
IDD3P0=0.000000
IDD3P02=0.000000
IDD3P1=0.000000
IDD3P12=0.000000
IDD4R=0.187000
IDD4R2=0.000000
IDD4W=0.165000
IDD4W2=0.000000
IDD5=0.220000
IDD52=0.000000
IDD6=0.000000
IDD62=0.000000
VDD=1.500000
VDD2=0.000000
activation_limit=4
addr_mapping=RoRaBaCoCh
bank_groups_per_rank=0
banks_per_rank=8
burst_length=8
channels=16
clk_domain=system.clk_domain
conf_table_reported=true
device_bus_width=8
device_rowbuffer_size=1024
device_size=536870912
devices_per_rank=8
dll=true
eventq_index=0
in_addr_map=true
max_accesses_per_row=16
mem_sched_policy=frfcfs
min_writes_per_switch=16
null=false
page_policy=open_adaptive
range=0:536870911
ranks_per_channel=2
read_buffer_size=32
static_backend_latency=10000
static_frontend_latency=10000
tBURST=5000
tCCD_L=0
tCK=1250
tCL=13750
tCS=2500
tRAS=35000
tRCD=13750
tREFI=7800000
tRFC=260000
tRP=13750
tRRD=6000
tRRD_L=0
tRTP=7500
tRTW=2500
tWR=15000
tWTR=7500
tXAW=30000
tXP=0
tXPDLL=0
tXS=0
tXSDLL=0
write_buffer_size=64
write_high_thresh_perc=85
write_low_thresh_perc=50
port=system.ruby.dir_cntrl0.memory

[system.mem_ctrls01]
type=DRAMCtrl
IDD0=0.075000
IDD02=0.000000
IDD2N=0.050000
IDD2N2=0.000000
IDD2P0=0.000000
IDD2P02=0.000000
IDD2P1=0.000000
IDD2P12=0.000000
IDD3N=0.057000
IDD3N2=0.000000
IDD3P0=0.000000
IDD3P02=0.000000
IDD3P1=0.000000
IDD3P12=0.000000
IDD4R=0.187000
IDD4R2=0.000000
IDD4W=0.165000
IDD4W2=0.000000
IDD5=0.220000
IDD52=0.000000
IDD6=0.000000
IDD62=0.000000
VDD=1.500000
VDD2=0.000000
activation_limit=4
addr_mapping=RoRaBaCoCh
bank_groups_per_rank=0
banks_per_rank=8
burst_length=8
channels=16
clk_domain=system.clk_domain
conf_table_reported=true
device_bus_width=8
device_rowbuffer_size=1024
device_size=536870912
devices_per_rank=8
dll=true
eventq_index=0
in_addr_map=true
max_accesses_per_row=16
mem_sched_policy=frfcfs
min_writes_per_switch=16
null=false
page_policy=open_adaptive
range=0:536870911
ranks_per_channel=2
read_buffer_size=32
static_backend_latency=10000
static_frontend_latency=10000
tBURST=5000
tCCD_L=0
tCK=1250
tCL=13750
tCS=2500
tRAS=35000
tRCD=13750
tREFI=7800000
tRFC=260000
tRP=13750
tRRD=6000
tRRD_L=0
tRTP=7500
tRTW=2500
tWR=15000
tWTR=7500
tXAW=30000
tXP=0
tXPDLL=0
tXS=0
tXSDLL=0
write_buffer_size=64
write_high_thresh_perc=85
write_low_thresh_perc=50
port=system.ruby.dir_cntrl1.memory

[system.mem_ctrls02]
type=DRAMCtrl
IDD0=0.075000
IDD02=0.000000
IDD2N=0.050000
IDD2N2=0.000000
IDD2P0=0.000000
IDD2P02=0.000000
IDD2P1=0.000000
IDD2P12=0.000000
IDD3N=0.057000
IDD3N2=0.000000
IDD3P0=0.000000
IDD3P02=0.000000
IDD3P1=0.000000
IDD3P12=0.000000
IDD4R=0.187000
IDD4R2=0.000000
IDD4W=0.165000
IDD4W2=0.000000
IDD5=0.220000
IDD52=0.000000
IDD6=0.000000
IDD62=0.000000
VDD=1.500000
VDD2=0.000000
activation_limit=4
addr_mapping=RoRaBaCoCh
bank_groups_per_rank=0
banks_per_rank=8
burst_length=8
channels=16
clk_domain=system.clk_domain
conf_table_reported=true
device_bus_width=8
device_rowbuffer_size=1024
device_size=536870912
devices_per_rank=8
dll=true
eventq_index=0
in_addr_map=true
max_accesses_per_row=16
mem_sched_policy=frfcfs
min_writes_per_switch=16
null=false
page_policy=open_adaptive
range=0:536870911
ranks_per_channel=2
read_buffer_size=32
static_backend_latency=10000
static_frontend_latency=10000
tBURST=5000
tCCD_L=0
tCK=1250
tCL=13750
tCS=2500
tRAS=35000
tRCD=13750
tREFI=7800000
tRFC=260000
tRP=13750
tRRD=6000
tRRD_L=0
tRTP=7500
tRTW=2500
tWR=15000
tWTR=7500
tXAW=30000
tXP=0
tXPDLL=0
tXS=0
tXSDLL=0
write_buffer_size=64
write_high_thresh_perc=85
write_low_thresh_perc=50
port=system.ruby.dir_cntrl2.memory

[system.mem_ctrls03]
type=DRAMCtrl
IDD0=0.075000
IDD02=0.000000
IDD2N=0.050000
IDD2N2=0.000000
IDD2P0=0.000000
IDD2P02=0.000000
IDD2P1=0.000000
IDD2P12=0.000000
IDD3N=0.057000
IDD3N2=0.000000
IDD3P0=0.000000
IDD3P02=0.000000
IDD3P1=0.000000
IDD3P12=0.000000
IDD4R=0.187000
IDD4R2=0.000000
IDD4W=0.165000
IDD4W2=0.000000
IDD5=0.220000
IDD52=0.000000
IDD6=0.000000
IDD62=0.000000
VDD=1.500000
VDD2=0.000000
activation_limit=4
addr_mapping=RoRaBaCoCh
bank_groups_per_rank=0
banks_per_rank=8
burst_length=8
channels=16
clk_domain=system.clk_domain
conf_table_reported=true
device_bus_width=8
device_rowbuffer_size=1024
device_size=536870912
devices_per_rank=8
dll=true
eventq_index=0
in_addr_map=true
max_accesses_per_row=16
mem_sched_policy=frfcfs
min_writes_per_switch=16
null=false
page_policy=open_adaptive
range=0:536870911
ranks_per_channel=2
read_buffer_size=32
static_backend_latency=10000
static_frontend_latency=10000
tBURST=5000
tCCD_L=0
tCK=1250
tCL=13750
tCS=2500
tRAS=35000
tRCD=13750
tREFI=7800000
tRFC=260000
tRP=13750
tRRD=6000
tRRD_L=0
tRTP=7500
tRTW=2500
tWR=15000
tWTR=7500
tXAW=30000
tXP=0
tXPDLL=0
tXS=0
tXSDLL=0
write_buffer_size=64
write_high_thresh_perc=85
write_low_thresh_perc=50
port=system.ruby.dir_cntrl3.memory

[system.mem_ctrls04]
type=DRAMCtrl
IDD0=0.075000
IDD02=0.000000
IDD2N=0.050000
IDD2N2=0.000000
IDD2P0=0.000000
IDD2P02=0.000000
IDD2P1=0.000000
IDD2P12=0.000000
IDD3N=0.057000
IDD3N2=0.000000
IDD3P0=0.000000
IDD3P02=0.000000
IDD3P1=0.000000
IDD3P12=0.000000
IDD4R=0.187000
IDD4R2=0.000000
IDD4W=0.165000
IDD4W2=0.000000
IDD5=0.220000
IDD52=0.000000
IDD6=0.000000
IDD62=0.000000
VDD=1.500000
VDD2=0.000000
activation_limit=4
addr_mapping=RoRaBaCoCh
bank_groups_per_rank=0
banks_per_rank=8
burst_length=8
channels=16
clk_domain=system.clk_domain
conf_table_reported=true
device_bus_width=8
device_rowbuffer_size=1024
device_size=536870912
devices_per_rank=8
dll=true
eventq_index=0
in_addr_map=true
max_accesses_per_row=16
mem_sched_policy=frfcfs
min_writes_per_switch=16
null=false
page_policy=open_adaptive
range=0:536870911
ranks_per_channel=2
read_buffer_size=32
static_backend_latency=10000
static_frontend_latency=10000
tBURST=5000
tCCD_L=0
tCK=1250
tCL=13750
tCS=2500
tRAS=35000
tRCD=13750
tREFI=7800000
tRFC=260000
tRP=13750
tRRD=6000
tRRD_L=0
tRTP=7500
tRTW=2500
tWR=15000
tWTR=7500
tXAW=30000
tXP=0
tXPDLL=0
tXS=0
tXSDLL=0
write_buffer_size=64
write_high_thresh_perc=85
write_low_thresh_perc=50
port=system.ruby.dir_cntrl4.memory

[system.mem_ctrls05]
type=DRAMCtrl
IDD0=0.075000
IDD02=0.000000
IDD2N=0.050000
IDD2N2=0.000000
IDD2P0=0.000000
IDD2P02=0.000000
IDD2P1=0.000000
IDD2P12=0.000000
IDD3N=0.057000
IDD3N2=0.000000
IDD3P0=0.000000
IDD3P02=0.000000
IDD3P1=0.000000
IDD3P12=0.000000
IDD4R=0.187000
IDD4R2=0.000000
IDD4W=0.165000
IDD4W2=0.000000
IDD5=0.220000
IDD52=0.000000
IDD6=0.000000
IDD62=0.000000
VDD=1.500000
VDD2=0.000000
activation_limit=4
addr_mapping=RoRaBaCoCh
bank_groups_per_rank=0
banks_per_rank=8
burst_length=8
channels=16
clk_domain=system.clk_domain
conf_table_reported=true
device_bus_width=8
device_rowbuffer_size=1024
device_size=536870912
devices_per_rank=8
dll=true
eventq_index=0
in_addr_map=true
max_accesses_per_row=16
mem_sched_policy=frfcfs
min_writes_per_switch=16
null=false
page_policy=open_adaptive
range=0:536870911
ranks_per_channel=2
read_buffer_size=32
static_backend_latency=10000
static_frontend_latency=10000
tBURST=5000
tCCD_L=0
tCK=1250
tCL=13750
tCS=2500
tRAS=35000
tRCD=13750
tREFI=7800000
tRFC=260000
tRP=13750
tRRD=6000
tRRD_L=0
tRTP=7500
tRTW=2500
tWR=15000
tWTR=7500
tXAW=30000
tXP=0
tXPDLL=0
tXS=0
tXSDLL=0
write_buffer_size=64
write_high_thresh_perc=85
write_low_thresh_perc=50
port=system.ruby.dir_cntrl5.memory

[system.mem_ctrls06]
type=DRAMCtrl
IDD0=0.075000
IDD02=0.000000
IDD2N=0.050000
IDD2N2=0.000000
IDD2P0=0.000000
IDD2P02=0.000000
IDD2P1=0.000000
IDD2P12=0.000000
IDD3N=0.057000
IDD3N2=0.000000
IDD3P0=0.000000
IDD3P02=0.000000
IDD3P1=0.000000
IDD3P12=0.000000
IDD4R=0.187000
IDD4R2=0.000000
IDD4W=0.165000
IDD4W2=0.000000
IDD5=0.220000
IDD52=0.000000
IDD6=0.000000
IDD62=0.000000
VDD=1.500000
VDD2=0.000000
activation_limit=4
addr_mapping=RoRaBaCoCh
bank_groups_per_rank=0
banks_per_rank=8
burst_length=8
channels=16